Version 4
SHEET 1 880 680
WIRE 48 112 -16 112
WIRE 144 112 128 112
WIRE 176 112 144 112
WIRE 320 112 256 112
WIRE 384 112 320 112
WIRE 512 112 464 112
WIRE 560 112 512 112
WIRE 320 160 320 112
WIRE -16 176 -16 112
WIRE 560 176 560 112
WIRE -16 320 -16 256
WIRE 320 320 320 224
WIRE 320 320 -16 320
WIRE 560 320 560 256
WIRE 560 320 320 320
FLAG 320 320 0
FLAG 144 112 Vi
FLAG 512 112 Vo
SYMBOL ind 272 96 R90
WINDOW 0 5 56 VBottom 2
WINDOW 3 32 56 VTop 2
SYMATTR InstName L1
SYMATTR Value 1
SYMBOL cap 304 160 R0
SYMATTR InstName C1
SYMATTR Value 2
SYMBOL ind 480 96 R90
WINDOW 0 5 56 VBottom 2
WINDOW 3 32 56 VTop 2
SYMATTR InstName L2
SYMATTR Value 1
SYMBOL res 544 160 R0
SYMATTR InstName R2
SYMATTR Value 1
SYMBOL voltage -16 160 R0
WINDOW 3 24 152 Left 2
WINDOW 123 24 124 Left 2
WINDOW 39 0 0 Left 0
SYMATTR InstName V1
SYMATTR Value SINE(0 1 1 0 0 0 1000)
SYMATTR Value2 AC 1 0
SYMBOL res 144 96 R90
WINDOW 0 0 56 VBottom 2
WINDOW 3 32 56 VTop 2
SYMATTR InstName R1
SYMATTR Value 1
TEXT 600 120 Left 2 !.net I(R2) V1
TEXT -40 384 Left 2 !.param f = w/(2*pi)\n.step dec param w 0.01 100 30\n.ac list {f}
