Version 4
SHEET 1 1072 928
WIRE 704 112 544 112
WIRE 224 208 224 128
WIRE 304 208 288 208
WIRE 416 208 384 208
WIRE 544 208 544 112
WIRE 544 208 496 208
WIRE 576 208 544 208
WIRE 704 224 704 112
WIRE 704 224 640 224
WIRE 576 240 544 240
WIRE 384 288 384 208
WIRE 464 288 384 288
WIRE 544 288 544 240
WIRE 544 288 528 288
WIRE 544 320 544 288
WIRE 336 336 208 336
WIRE 208 432 208 336
WIRE 240 432 208 432
WIRE 336 448 336 336
WIRE 336 448 304 448
WIRE 544 448 544 400
WIRE 240 464 144 464
WIRE 736 528 576 528
WIRE 336 624 320 624
WIRE 416 624 416 544
WIRE 448 624 416 624
WIRE 576 624 576 528
WIRE 576 624 528 624
WIRE 608 624 576 624
WIRE 736 640 736 528
WIRE 736 640 672 640
WIRE 608 656 576 656
WIRE 256 672 256 624
WIRE 416 704 416 624
WIRE 496 704 416 704
WIRE 576 704 576 656
WIRE 576 704 560 704
WIRE 576 736 576 704
WIRE 256 768 256 752
WIRE 576 864 576 816
FLAG 544 448 0
FLAG 416 544 v1
FLAG 144 464 v1
FLAG 336 448 v2
FLAG 224 128 v2
FLAG 384 208 vo
FLAG 576 864 0
FLAG 256 768 0
FLAG 256 624 Vi
SYMBOL res 512 192 R90
WINDOW 0 0 56 VBottom 2
WINDOW 3 32 56 VTop 2
SYMATTR InstName R4
SYMATTR Value 10
SYMBOL cap 288 192 R90
WINDOW 0 0 32 VBottom 2
WINDOW 3 43 36 VTop 2
SYMATTR InstName C4
SYMATTR Value 100nF
SYMBOL OpAmps\\opamp 608 160 R0
SYMATTR InstName U3
SYMBOL cap 528 272 R90
WINDOW 0 0 32 VBottom 2
WINDOW 3 32 32 VTop 2
SYMATTR InstName C5
SYMATTR Value 29.26nF
SYMBOL res 528 304 R0
SYMATTR InstName R5
SYMATTR Value 100K
SYMBOL OpAmps\\opamp 272 384 R0
SYMATTR InstName U1
SYMBOL res 400 192 R90
WINDOW 0 0 56 VBottom 2
WINDOW 3 32 56 VTop 2
SYMATTR InstName R6
SYMATTR Value 1K
SYMBOL res 544 608 R90
WINDOW 0 0 56 VBottom 2
WINDOW 3 32 56 VTop 2
SYMATTR InstName R7
SYMATTR Value 10
SYMBOL OpAmps\\opamp 640 576 R0
SYMATTR InstName U4
SYMBOL res 560 720 R0
SYMATTR InstName R8
SYMATTR Value 100K
SYMBOL res 432 608 R90
WINDOW 0 0 56 VBottom 2
WINDOW 3 32 56 VTop 2
SYMATTR InstName R9
SYMATTR Value 1K
SYMBOL cap 320 608 R90
WINDOW 0 0 32 VBottom 2
WINDOW 3 -66 21 VTop 2
SYMATTR InstName C2
SYMATTR Value 41nF
SYMBOL cap 496 720 R270
WINDOW 0 32 32 VTop 2
WINDOW 3 0 32 VBottom 2
SYMATTR InstName C6
SYMATTR Value 70.71nF
SYMBOL voltage 256 656 R0
WINDOW 123 24 124 Left 2
WINDOW 39 0 0 Left 0
WINDOW 0 -83 57 Left 2
SYMATTR Value2 AC 1 0
SYMATTR InstName V2
SYMATTR Value ""
TEXT 584 472 Left 2 !.lib opamp.sub
TEXT 144 912 Left 2 !.ac dec 100 100 1000K
